<routes>

    <vType id="car"   accel="2.6" decel="4.5" sigma="0.5" length="5"   maxSpeed="50" color="0.8,0.8,0.8" emissionClass="HBEFA3/PC_G_EU4"/>
    <vType id="truck" accel="1.3" decel="3.5" sigma="0.4" length="12"  maxSpeed="40" color="0.6,0.4,0.2" emissionClass="HBEFA3/HDV_D_EU4"/>
    <vType id="moto"  accel="3.5" decel="5.0" sigma="0.6" length="2.5" maxSpeed="60" color="0.2,0.2,0.8" emissionClass="HBEFA3/PC_G_EU4"/>
    <vehicle id="bg_36" type="truck" depart="16">
        <route edges="183616149#1 132474412#1"/>
    </vehicle>
    <vehicle id="bg_34" type="truck" depart="37">
        <route edges="688633729#2 181133407#1"/>
    </vehicle>
    <vehicle id="bg_47" type="car" depart="37">
        <route edges="66320579#1 694745767#7"/>
    </vehicle>
    <vehicle id="bg_63" type="car" depart="37">
        <route edges="40785182#1 53726657#4"/>
    </vehicle>
    <vehicle id="bg_83" type="car" depart="51">
        <route edges="132474411#0 66320576#3"/>
    </vehicle>
    <vehicle id="bg_67" type="car" depart="56">
        <route edges="53726651#0 40785358#1"/>
    </vehicle>
    <vehicle id="bg_0" type="car" depart="65">
        <route edges="181133407#1 -236464875#0"/>
    </vehicle>
    <vehicle id="bg_84" type="car" depart="65">
        <route edges="-1119582623#1 236594015#2"/>
    </vehicle>
    <vehicle id="bg_35" type="car" depart="67">
        <route edges="1018486121 478458068#1"/>
    </vehicle>
    <vehicle id="bg_74" type="car" depart="69">
        <route edges="236488975#3 66939010#0"/>
    </vehicle>
    <vehicle id="bg_96" type="car" depart="77">
        <route edges="66939014#3 132474427#1"/>
    </vehicle>
    <vehicle id="bg_2" type="truck" depart="82">
        <route edges="236488975#1 132474410#4"/>
    </vehicle>
    <vehicle id="bg_68" type="car" depart="82">
        <route edges="132474412#16 1210849711#1"/>
    </vehicle>
    <vehicle id="bg_9" type="car" depart="90">
        <route edges="1185549445#2 132474410#7"/>
    </vehicle>
    <vehicle id="bg_4" type="moto" depart="92">
        <route edges="236488997#0 -236488979#2"/>
    </vehicle>
    <vehicle id="bg_28" type="car" depart="95">
        <route edges="-1185549443 66320561"/>
    </vehicle>
    <vehicle id="bg_29" type="truck" depart="115">
        <route edges="53726652#0 -558902452#6"/>
    </vehicle>
    <vehicle id="bg_40" type="car" depart="130">
        <route edges="1018486129#1 132474429#3"/>
    </vehicle>
    <vehicle id="bg_12" type="car" depart="131">
        <route edges="152447452#1 236662694#0"/>
    </vehicle>
    <vehicle id="bg_94" type="moto" depart="163">
        <route edges="152447453#6 132474408#3"/>
    </vehicle>
    <vehicle id="bg_59" type="car" depart="165">
        <route edges="-66939014#3 236464869"/>
    </vehicle>
    <vehicle id="bg_72" type="car" depart="175">
        <route edges="238271790#2 152447452#0"/>
    </vehicle>
    <vehicle id="bg_61" type="car" depart="176">
        <route edges="238271790#1 238271790#5"/>
    </vehicle>
    <vehicle id="bg_97" type="truck" depart="188">
        <route edges="694745767#5 132474412#5"/>
    </vehicle>
    <vehicle id="bg_1" type="car" depart="201">
        <route edges="-478458068#1 132474401"/>
    </vehicle>
    <vehicle id="bg_17" type="car" depart="201">
        <route edges="132474411#3 152447453#5"/>
    </vehicle>
    <vehicle id="bg_76" type="car" depart="204">
        <route edges="1018486127#0 -236495369#0"/>
    </vehicle>
    <vehicle id="bg_66" type="car" depart="221">
        <route edges="132474409#3 478458068#1"/>
    </vehicle>
    <vehicle id="bg_55" type="truck" depart="222">
        <route edges="371337124#0 132474429#2"/>
    </vehicle>
    <vehicle id="bg_49" type="car" depart="223">
        <route edges="132474409#3 66320579#0"/>
    </vehicle>
    <vehicle id="bg_11" type="car" depart="227">
        <route edges="1018486120 -132474401"/>
    </vehicle>
    <vehicle id="bg_26" type="car" depart="241">
        <route edges="132698944#1 132474404#0"/>
    </vehicle>
    <vehicle id="bg_58" type="moto" depart="247">
        <route edges="132474412#12 132474429#3"/>
    </vehicle>
    <vehicle id="bg_3" type="moto" depart="254">
        <route edges="152447453#6 694745767#6"/>
    </vehicle>
    <vehicle id="bg_54" type="car" depart="254">
        <route edges="132474412#7 236488997#1"/>
    </vehicle>
    <vehicle id="bg_70" type="truck" depart="255">
        <route edges="66939034 -236662694#1"/>
    </vehicle>
    <vehicle id="bg_16" type="moto" depart="263">
        <route edges="558902452#6 40785358#1"/>
    </vehicle>
    <vehicle id="bg_38" type="car" depart="265">
        <route edges="-1185549443 -478458068#0"/>
    </vehicle>
    <vehicle id="bg_20" type="moto" depart="269">
        <route edges="53726649#2 478458068#1"/>
    </vehicle>
    <vehicle id="bg_77" type="truck" depart="270">
        <route edges="236495362#0 1210849711#1"/>
    </vehicle>
    <vehicle id="bg_14" type="car" depart="299">
        <route edges="66320583#0 132474408#2"/>
    </vehicle>
    <vehicle id="bg_92" type="moto" depart="299">
        <route edges="1185549445#1 53726657#4"/>
    </vehicle>
    <vehicle id="bg_21" type="moto" depart="302">
        <route edges="-235271673#3 1034454807"/>
    </vehicle>
    <vehicle id="bg_52" type="car" depart="313">
        <route edges="40781484#1 678909317#1"/>
    </vehicle>
    <vehicle id="bg_51" type="truck" depart="316">
        <route edges="1018486122 66320573#3"/>
    </vehicle>
    <vehicle id="bg_42" type="car" depart="326">
        <route edges="-558902452#5 621990109#8"/>
    </vehicle>
    <vehicle id="bg_37" type="car" depart="333">
        <route edges="132474402#1 40784890#1"/>
    </vehicle>
    <vehicle id="bg_80" type="car" depart="347">
        <route edges="1018486127#0 -235271673#2"/>
    </vehicle>
    <vehicle id="bg_43" type="truck" depart="359">
        <route edges="152447453#7 40781018#3"/>
    </vehicle>
    <vehicle id="bg_6" type="car" depart="360">
        <route edges="40784890#8 40785199#1"/>
    </vehicle>
    <vehicle id="bg_82" type="moto" depart="362">
        <route edges="342692384#2 132474424#1"/>
    </vehicle>
    <vehicle id="bg_62" type="car" depart="364">
        <route edges="66320572#0 -132474406#2"/>
    </vehicle>
    <vehicle id="bg_39" type="truck" depart="365">
        <route edges="688633735#2 236594015#2"/>
    </vehicle>
    <vehicle id="bg_13" type="truck" depart="374">
        <route edges="132474410#7 706999044#1"/>
    </vehicle>
    <vehicle id="bg_85" type="car" depart="380">
        <route edges="-236662694#2 236495362#0"/>
    </vehicle>
    <vehicle id="bg_18" type="car" depart="386">
        <route edges="236594015#1 236662694#2"/>
    </vehicle>
    <vehicle id="bg_65" type="car" depart="396">
        <route edges="236488979#1 -236464875#0"/>
    </vehicle>
    <vehicle id="bg_48" type="moto" depart="401">
        <route edges="66939035#1 132474424#2"/>
    </vehicle>
    <vehicle id="bg_69" type="moto" depart="401">
        <route edges="236488979#1 688633729#3"/>
    </vehicle>
    <vehicle id="bg_8" type="car" depart="405">
        <route edges="236464875#1 152447452#2"/>
    </vehicle>
    <vehicle id="bg_46" type="moto" depart="406">
        <route edges="40785358#0 621990109#1"/>
    </vehicle>
    <vehicle id="bg_79" type="moto" depart="410">
        <route edges="40785199#0 990930609#1"/>
    </vehicle>
    <vehicle id="bg_5" type="car" depart="425">
        <route edges="1119582623#1 238271790#4"/>
    </vehicle>
    <vehicle id="bg_24" type="truck" depart="431">
        <route edges="990930609#7 1018486122"/>
    </vehicle>
    <vehicle id="bg_31" type="truck" depart="431">
        <route edges="694745767#11 66320572#1"/>
    </vehicle>
    <vehicle id="bg_87" type="truck" depart="439">
        <route edges="152447453#4 132474406#1"/>
    </vehicle>
    <vehicle id="bg_45" type="moto" depart="443">
        <route edges="558902452#4 678909319#1"/>
    </vehicle>
    <vehicle id="bg_93" type="car" depart="451">
        <route edges="-1119582623#1 152447453#3"/>
    </vehicle>
    <vehicle id="bg_19" type="car" depart="460">
        <route edges="1020530409#1 706999044#2"/>
    </vehicle>
    <vehicle id="bg_57" type="car" depart="463">
        <route edges="53726651#1 -558902452#6"/>
    </vehicle>
    <vehicle id="bg_56" type="moto" depart="467">
        <route edges="1018486130 40785199#1"/>
    </vehicle>
    <vehicle id="bg_75" type="moto" depart="468">
        <route edges="558902452#1 183616149#1"/>
    </vehicle>
    <vehicle id="bg_25" type="truck" depart="478">
        <route edges="53726651#1 66320587#3"/>
    </vehicle>
    <vehicle id="bg_30" type="car" depart="490">
        <route edges="152447453#6 228407787#0"/>
    </vehicle>
    <vehicle id="bg_71" type="truck" depart="491">
        <route edges="132474428#1 -558902452#4"/>
    </vehicle>
    <vehicle id="bg_64" type="truck" depart="502">
        <route edges="-66939040#1 235271673#3"/>
    </vehicle>
    <vehicle id="bg_91" type="moto" depart="503">
        <route edges="40784890#4 66939040#0"/>
    </vehicle>
    <vehicle id="bg_41" type="car" depart="519">
        <route edges="40784890#1 -66939035#1"/>
    </vehicle>
    <vehicle id="bg_27" type="truck" depart="527">
        <route edges="132474409#2 132474407#2"/>
    </vehicle>
    <vehicle id="bg_99" type="car" depart="528">
        <route edges="1018486129#0 40785358#1"/>
    </vehicle>
    <vehicle id="bg_32" type="truck" depart="530">
        <route edges="-236594017#3 132474429#0"/>
    </vehicle>
    <vehicle id="bg_95" type="car" depart="532">
        <route edges="-132474402#1 132474408#0"/>
    </vehicle>
    <vehicle id="bg_50" type="car" depart="533">
        <route edges="1185549443 694745767#8"/>
    </vehicle>
    <vehicle id="bg_88" type="moto" depart="533">
        <route edges="66320583#0 236594017#3"/>
    </vehicle>
    <vehicle id="bg_86" type="car" depart="535">
        <route edges="-558902452#5 66939033"/>
    </vehicle>
    <vehicle id="bg_73" type="car" depart="537">
        <route edges="132474412#12 40784890#4"/>
    </vehicle>
    <vehicle id="bg_81" type="truck" depart="541">
        <route edges="132474408#3 236594015#1"/>
    </vehicle>
    <vehicle id="bg_33" type="car" depart="543">
        <route edges="-132474402#1 40781018#3"/>
    </vehicle>
    <vehicle id="bg_53" type="car" depart="558">
        <route edges="132474406#1 228407774"/>
    </vehicle>
    <vehicle id="bg_60" type="moto" depart="564">
        <route edges="132474412#13 132474409#2"/>
    </vehicle>
    <vehicle id="bg_15" type="truck" depart="568">
        <route edges="66320572#3 621990109#4"/>
    </vehicle>
    <vehicle id="bg_10" type="car" depart="570">
        <route edges="53726651#0 621990109#0"/>
    </vehicle>
    <vehicle id="bg_90" type="car" depart="574">
        <route edges="694745767#8 132474410#7"/>
    </vehicle>
    <vehicle id="bg_22" type="truck" depart="575">
        <route edges="236594017#2 53726657#3"/>
    </vehicle>
    <vehicle id="bg_23" type="car" depart="579">
        <route edges="238271790#6 -694745766#1"/>
    </vehicle>
    <vehicle id="bg_7" type="truck" depart="590">
        <route edges="-132474414#1 152447453#6"/>
    </vehicle>
    <vehicle id="bg_44" type="car" depart="593">
        <route edges="132474406#1 236495369#0"/>
    </vehicle>
    <vehicle id="bg_78" type="car" depart="600">
        <route edges="40784678#1 132474430#1"/>
    </vehicle>
    <vehicle id="bg_89" type="car" depart="600">
        <route edges="1185549443 -236488979#1"/>
    </vehicle>
    <vehicle id="bg_98" type="moto" depart="600">
        <route edges="-132474414#0 132474412#3"/>
    </vehicle>
</routes>
