<?xml version="1.0" encoding="UTF-8"?>

<!-- generated on 2026-04-21 13:30:01.386368 by Eclipse SUMO osmWebWizard.py v1_26_0+0000-fa7df22d7f1
<configuration>
    <net-file value="C:\Teknofest2242\2026-04-21-13-29-08\osm.net.xml.gz"/>
    <output-trip-file value="C:\Teknofest2242\2026-04-21-13-29-08\osm.passenger.trips.xml"/>
    <route-file value="C:\Teknofest2242\2026-04-21-13-29-08\osm.passenger.rou.xml"/>
    <prefix value="veh"/>
    <trip-attributes value="departLane=&quot;best&quot;"/>
    <fringe-start-attributes value="departSpeed=&quot;max&quot;"/>
    <vehicle-class value="passenger"/>
    <lanes value="True"/>
    <fringe-factor value="5"/>
    <allow-fringe.min-length value="1000.0"/>
    <edge-permission value="passenger"/>
    <via-edge-types value="highway.motorway,highway.motorway_link,highway.trunk_link,highway.primary_link,highway.secondary_link,highway.tertiary_link"/>
    <min-distance value="300.0"/>
    <min-distance.fringe value="10.0"/>
    <remove-loops value="True"/>
    <insertion-density value="12.0"/>
</configuration>
-->

<routes xmlns:xsi="http://www.w3.org/2001/XMLSchema-instance" xsi:noNamespaceSchemaLocation="http://sumo.dlr.de/xsd/routes_file.xsd">
    <vType id="veh_passenger" vClass="passenger"/>
    <trip id="veh0" depart="0.00" from="40781018#0" to="-235271673#3" departLane="best" type="veh_passenger"/>
    <trip id="veh1" depart="12.37" from="132474406#2" to="132474404#0" departLane="best" type="veh_passenger"/>
    <trip id="veh2" depart="24.74" from="66939014#2" to="-558902452#0" departLane="best" type="veh_passenger"/>
    <trip id="veh3" depart="37.11" from="1018486127#0" to="236167003#2" departLane="best" type="veh_passenger"/>
    <trip id="veh4" depart="49.49" from="40781484#1" to="236495369#1" departLane="best" type="veh_passenger"/>
    <trip id="veh5" depart="61.86" from="1018486127#1" to="238271790#3" departLane="best" type="veh_passenger"/>
    <trip id="veh6" depart="74.23" from="694745767#2" to="132474429#2" departLane="best" type="veh_passenger"/>
    <trip id="veh7" depart="86.60" from="236409580#0" to="694745767#6" departLane="best" type="veh_passenger" departSpeed="max"/>
    <trip id="veh8" depart="98.97" from="132474430#2" to="236495369#1" departLane="best" type="veh_passenger"/>
    <trip id="veh9" depart="111.34" from="621990109#9" to="40781018#2" departLane="best" type="veh_passenger"/>
    <trip id="veh10" depart="123.71" from="1018486129#1" to="132474412#13" departLane="best" type="veh_passenger"/>
    <trip id="veh11" depart="136.09" from="-236464875#0" to="132474406#1" departLane="best" type="veh_passenger"/>
    <trip id="veh12" depart="148.46" from="-236594017#3" to="132474412#0" departLane="best" type="veh_passenger"/>
    <trip id="veh13" depart="160.83" from="40781484#0" to="371337124#0" departLane="best" type="veh_passenger"/>
    <trip id="veh14" depart="173.20" from="990930609#0" to="40784890#4" departLane="best" type="veh_passenger" departSpeed="max"/>
    <trip id="veh15" depart="185.57" from="66320573#0" to="53726657#3" departLane="best" type="veh_passenger"/>
    <trip id="veh16" depart="197.94" from="1018486129#1" to="-236464875#0" departLane="best" type="veh_passenger"/>
    <trip id="veh17" depart="210.32" from="132474411#3" to="132474410#7" departLane="best" type="veh_passenger"/>
    <trip id="veh18" depart="222.69" from="66320587#1" to="132474423" departLane="best" type="veh_passenger"/>
    <trip id="veh19" depart="235.06" from="40784678#0" to="152447453#3" departLane="best" type="veh_passenger"/>
    <trip id="veh20" depart="247.43" from="678909319#1" to="235253308#0" departLane="best" type="veh_passenger"/>
    <trip id="veh21" depart="259.80" from="236488979#2" to="132474410#4" departLane="best" type="veh_passenger"/>
    <trip id="veh22" depart="272.17" from="236495369#0" to="66939016" departLane="best" type="veh_passenger" departSpeed="max"/>
    <trip id="veh23" depart="284.54" from="40785358#0" to="236488997#0" departLane="best" type="veh_passenger" departSpeed="max"/>
    <trip id="veh24" depart="296.92" from="132474404#2" to="40784890#4" departLane="best" type="veh_passenger"/>
    <trip id="veh25" depart="309.29" from="678909317#1" to="66939012#0" departLane="best" type="veh_passenger"/>
    <trip id="veh26" depart="321.66" from="132474410#3" to="40784890#3" departLane="best" type="veh_passenger"/>
    <trip id="veh27" depart="334.03" from="-1018486121" to="132474427#2" departLane="best" type="veh_passenger"/>
    <trip id="veh28" depart="346.40" from="-132474401" to="688633729#2" departLane="best" type="veh_passenger" departSpeed="max"/>
    <trip id="veh29" depart="358.77" from="132474410#7" to="-236495369#0" departLane="best" type="veh_passenger"/>
    <trip id="veh30" depart="371.14" from="-228407774" to="53726649#3" departLane="best" type="veh_passenger" departSpeed="max"/>
    <trip id="veh31" depart="383.52" from="53726649#1" to="-694745766#2" departLane="best" type="veh_passenger"/>
    <trip id="veh32" depart="395.89" from="132474404#1" to="66939012#1" departLane="best" type="veh_passenger"/>
    <trip id="veh33" depart="408.26" from="152447453#5" to="132474401" departLane="best" type="veh_passenger"/>
    <trip id="veh34" depart="420.63" from="-694745766#1" to="132474415" departLane="best" type="veh_passenger"/>
    <trip id="veh35" depart="433.00" from="990930609#1" to="40785182#1" departLane="best" type="veh_passenger"/>
    <trip id="veh36" depart="445.37" from="181133407#0" to="236464875#2" departLane="best" type="veh_passenger"/>
    <trip id="veh37" depart="457.74" from="1018486130" to="132474402#1" departLane="best" type="veh_passenger"/>
    <trip id="veh38" depart="470.12" from="-228407774" to="40784678#0" departLane="best" type="veh_passenger" departSpeed="max"/>
    <trip id="veh39" depart="482.49" from="1018486129#1" to="66939035#0" departLane="best" type="veh_passenger"/>
    <trip id="veh40" depart="494.86" from="1119582623#1" to="40786009#1" departLane="best" type="veh_passenger"/>
    <trip id="veh41" depart="507.23" from="1018486122" to="-866617997" departLane="best" type="veh_passenger"/>
    <trip id="veh42" depart="519.60" from="688633734#2" to="236662690" departLane="best" type="veh_passenger"/>
    <trip id="veh43" depart="531.97" from="866617997" to="-558902452#1" departLane="best" type="veh_passenger"/>
    <trip id="veh44" depart="544.35" from="-66939035#0" to="228407774" departLane="best" type="veh_passenger"/>
    <trip id="veh45" depart="556.72" from="1210849711#1" to="678909319#2" departLane="best" type="veh_passenger"/>
    <trip id="veh46" depart="569.09" from="990930609#8" to="66320576#0" departLane="best" type="veh_passenger"/>
    <trip id="veh47" depart="581.46" from="694745767#9" to="688633729#1" departLane="best" type="veh_passenger"/>
    <trip id="veh48" depart="593.83" from="66320573#3" to="1020530409#2" departLane="best" type="veh_passenger"/>
    <trip id="veh49" depart="606.20" from="132474404#1" to="558902452#5" departLane="best" type="veh_passenger"/>
    <trip id="veh50" depart="618.57" from="219155787#0" to="215223480" departLane="best" type="veh_passenger" departSpeed="max"/>
    <trip id="veh51" depart="630.95" from="694745767#2" to="990930609#1" departLane="best" type="veh_passenger"/>
    <trip id="veh52" depart="643.32" from="-66320561" to="132474412#3" departLane="best" type="veh_passenger" departSpeed="max"/>
    <trip id="veh53" depart="655.69" from="-66320561" to="694745767#1" departLane="best" type="veh_passenger" departSpeed="max"/>
    <trip id="veh54" depart="668.06" from="1067879367" to="-66939040#0" departLane="best" type="veh_passenger"/>
    <trip id="veh55" depart="680.43" from="66939014#1" to="132474408#2" departLane="best" type="veh_passenger"/>
    <trip id="veh56" depart="692.80" from="152447453#3" to="238271790#1" departLane="best" type="veh_passenger"/>
    <trip id="veh57" depart="705.17" from="236167003#1" to="688633733#0" departLane="best" type="veh_passenger"/>
    <trip id="veh58" depart="717.55" from="1119582623#1" to="152447453#3" departLane="best" type="veh_passenger"/>
    <trip id="veh59" depart="729.92" from="40785182#0" to="132474412#4" departLane="best" type="veh_passenger"/>
    <trip id="veh60" depart="742.29" from="-235271673#3" to="132474402#1" departLane="best" type="veh_passenger"/>
    <trip id="veh61" depart="754.66" from="132474404#1" to="688633730" departLane="best" type="veh_passenger"/>
    <trip id="veh62" depart="767.03" from="66320587#3" to="66939014#3" departLane="best" type="veh_passenger"/>
    <trip id="veh63" depart="779.40" from="132474429#0" to="1018486130" departLane="best" type="veh_passenger"/>
    <trip id="veh64" depart="791.78" from="238271790#2" to="708018276" departLane="best" type="veh_passenger"/>
    <trip id="veh65" depart="804.15" from="40781484#3" to="-132474406#1" departLane="best" type="veh_passenger"/>
    <trip id="veh66" depart="816.52" from="621990109#0" to="132474412#4" departLane="best" type="veh_passenger"/>
    <trip id="veh67" depart="828.89" from="40784890#3" to="688633734#0" departLane="best" type="veh_passenger"/>
    <trip id="veh68" depart="841.26" from="-236662690" to="236495369#1" departLane="best" type="veh_passenger" departSpeed="max"/>
    <trip id="veh69" depart="853.63" from="132474405#1" to="342692384#0" departLane="best" type="veh_passenger"/>
    <trip id="veh70" depart="866.00" from="342692384#2" to="132474410#5" departLane="best" type="veh_passenger"/>
    <trip id="veh71" depart="878.38" from="66320573#2" to="-558902452#0" departLane="best" type="veh_passenger"/>
    <trip id="veh72" depart="890.75" from="371337124#1" to="132474410#4" departLane="best" type="veh_passenger"/>
    <trip id="veh73" depart="903.12" from="152447453#7" to="-132474406#2" departLane="best" type="veh_passenger"/>
    <trip id="veh74" depart="915.49" from="66939040#0" to="236495369#1" departLane="best" type="veh_passenger"/>
    <trip id="veh75" depart="927.86" from="66320572#1" to="238271790#1" departLane="best" type="veh_passenger"/>
    <trip id="veh76" depart="940.23" from="-558902452#5" to="-694745766#1" departLane="best" type="veh_passenger"/>
    <trip id="veh77" depart="952.60" from="132474410#7" to="66939016" departLane="best" type="veh_passenger"/>
    <trip id="veh78" depart="964.98" from="558902452#0" to="66320587#1" departLane="best" type="veh_passenger" departSpeed="max"/>
    <trip id="veh79" depart="977.35" from="66939034" to="132474401" departLane="best" type="veh_passenger"/>
    <trip id="veh80" depart="989.72" from="1210849711#1" to="-558902452#5" departLane="best" type="veh_passenger"/>
    <trip id="veh81" depart="1002.09" from="53726652#0" to="66939014#4" departLane="best" type="veh_passenger"/>
    <trip id="veh82" depart="1014.46" from="-66320561" to="688633729#2" departLane="best" type="veh_passenger" departSpeed="max"/>
    <trip id="veh83" depart="1026.83" from="132474412#2" to="688633729#3" departLane="best" type="veh_passenger"/>
    <trip id="veh84" depart="1039.20" from="558902452#4" to="66320587#2" departLane="best" type="veh_passenger"/>
    <trip id="veh85" depart="1051.58" from="53726657#4" to="-66939012#0" departLane="best" type="veh_passenger"/>
    <trip id="veh86" depart="1063.95" from="558902452#0" to="132474404#2" departLane="best" type="veh_passenger" departSpeed="max"/>
    <trip id="veh87" depart="1076.32" from="132474412#16" to="66320587#3" departLane="best" type="veh_passenger"/>
    <trip id="veh88" depart="1088.69" from="694745767#8" to="132474412#0" departLane="best" type="veh_passenger"/>
    <trip id="veh89" depart="1101.06" from="40781018#1" to="152447453#5" departLane="best" type="veh_passenger"/>
    <trip id="veh90" depart="1113.43" from="688633735#1" to="-66939035#0" departLane="best" type="veh_passenger"/>
    <trip id="veh91" depart="1125.81" from="706999044#1" to="1185549443" departLane="best" type="veh_passenger"/>
    <trip id="veh92" depart="1138.18" from="132474403" to="478458068#1" departLane="best" type="veh_passenger" departSpeed="max"/>
    <trip id="veh93" depart="1150.55" from="40784890#4" to="132474428#2" departLane="best" type="veh_passenger"/>
    <trip id="veh94" depart="1162.92" from="132474411#2" to="66320583#0" departLane="best" type="veh_passenger"/>
    <trip id="veh95" depart="1175.29" from="-478458068#1" to="183616149#1" departLane="best" type="veh_passenger" departSpeed="max"/>
    <trip id="veh96" depart="1187.66" from="66939035#1" to="40781018#1" departLane="best" type="veh_passenger"/>
    <trip id="veh97" depart="1200.03" from="132474410#4" to="236495369#1" departLane="best" type="veh_passenger"/>
    <trip id="veh98" depart="1212.41" from="-1018486121" to="132474412#12" departLane="best" type="veh_passenger"/>
    <trip id="veh99" depart="1224.78" from="40784678#0" to="235271673#3" departLane="best" type="veh_passenger"/>
    <trip id="veh100" depart="1237.15" from="183616149#0" to="132474402#1" departLane="best" type="veh_passenger"/>
    <trip id="veh101" depart="1249.52" from="228407787#0" to="66939016" departLane="best" type="veh_passenger"/>
    <trip id="veh102" depart="1261.89" from="558902452#0" to="1020530409#2" departLane="best" type="veh_passenger" departSpeed="max"/>
    <trip id="veh103" depart="1274.26" from="342692384#2" to="132474429#1" departLane="best" type="veh_passenger"/>
    <trip id="veh104" depart="1286.63" from="40785182#1" to="132474404#1" departLane="best" type="veh_passenger"/>
    <trip id="veh105" depart="1299.01" from="-66939040#2" to="-235271673#2" departLane="best" type="veh_passenger"/>
    <trip id="veh106" depart="1311.38" from="152447453#0" to="40784678#0" departLane="best" type="veh_passenger"/>
    <trip id="veh107" depart="1323.75" from="235271673#3" to="132474408#1" departLane="best" type="veh_passenger"/>
    <trip id="veh108" depart="1336.12" from="40784678#0" to="-1119582623#1" departLane="best" type="veh_passenger"/>
    <trip id="veh109" depart="1348.49" from="-66939014#4" to="694745767#0" departLane="best" type="veh_passenger" departSpeed="max"/>
    <trip id="veh110" depart="1360.86" from="1210849711#1" to="66320583#0" departLane="best" type="veh_passenger"/>
    <trip id="veh111" depart="1373.23" from="66939014#2" to="371337124#1" departLane="best" type="veh_passenger"/>
    <trip id="veh112" depart="1385.61" from="66320561" to="236495369#1" departLane="best" type="veh_passenger"/>
    <trip id="veh113" depart="1397.98" from="228407787#1" to="132474409#4" departLane="best" type="veh_passenger"/>
    <trip id="veh114" depart="1410.35" from="1210849711#0" to="40784890#1" departLane="best" type="veh_passenger"/>
    <trip id="veh115" depart="1422.72" from="238271790#7" to="132474411#2" departLane="best" type="veh_passenger"/>
    <trip id="veh116" depart="1435.09" from="132474405#1" to="132474427#0" departLane="best" type="veh_passenger"/>
    <trip id="veh117" depart="1447.46" from="236464869" to="1018486121" departLane="best" type="veh_passenger"/>
    <trip id="veh118" depart="1459.84" from="152447452#0" to="236495365#2" departLane="best" type="veh_passenger"/>
    <trip id="veh119" depart="1472.21" from="152447453#1" to="132474401" departLane="best" type="veh_passenger"/>
    <trip id="veh120" depart="1484.58" from="66320576#2" to="53726651#0" departLane="best" type="veh_passenger"/>
    <trip id="veh121" depart="1496.95" from="132474431#1" to="-1119582623#1" departLane="best" type="veh_passenger"/>
    <trip id="veh122" depart="1509.32" from="66320576#0" to="694745766#1" departLane="best" type="veh_passenger"/>
    <trip id="veh123" depart="1521.69" from="1018486127#1" to="132474402#1" departLane="best" type="veh_passenger"/>
    <trip id="veh124" depart="1534.06" from="163920172#1" to="-235477242#1" departLane="best" type="veh_passenger"/>
    <trip id="veh125" depart="1546.44" from="-132474402#1" to="40784890#8" departLane="best" type="veh_passenger" departSpeed="max"/>
    <trip id="veh126" depart="1558.81" from="-215223480" to="139879927#9" departLane="best" type="veh_passenger" departSpeed="max"/>
    <trip id="veh127" depart="1571.18" from="1018486121" to="132474428#0" departLane="best" type="veh_passenger"/>
    <trip id="veh128" depart="1583.55" from="51815602#6" to="139879927#9" departLane="best" type="veh_passenger"/>
    <trip id="veh129" depart="1595.92" from="-132474401" to="236495365#1" departLane="best" type="veh_passenger" departSpeed="max"/>
    <trip id="veh130" depart="1608.29" from="990930609#8" to="132474432" departLane="best" type="veh_passenger"/>
    <trip id="veh131" depart="1620.66" from="40781484#1" to="558902452#1" departLane="best" type="veh_passenger"/>
    <trip id="veh132" depart="1633.04" from="694745767#0" to="1210849711#1" departLane="best" type="veh_passenger"/>
    <trip id="veh133" depart="1645.41" from="-132474401" to="1018486129#0" departLane="best" type="veh_passenger" departSpeed="max"/>
    <trip id="veh134" depart="1657.78" from="-478458068#1" to="40786009#1" departLane="best" type="veh_passenger" departSpeed="max"/>
    <trip id="veh135" depart="1670.15" from="236488997#0" to="132474402#1" departLane="best" type="veh_passenger"/>
    <trip id="veh136" depart="1682.52" from="-66939014#2" to="342692384#2" departLane="best" type="veh_passenger"/>
    <trip id="veh137" depart="1694.89" from="621990109#1" to="694745767#11" departLane="best" type="veh_passenger"/>
    <trip id="veh138" depart="1707.27" from="-236594017#3" to="53726657#1" departLane="best" type="veh_passenger"/>
    <trip id="veh139" depart="1719.64" from="66320575" to="238271790#6" departLane="best" type="veh_passenger"/>
    <trip id="veh140" depart="1732.01" from="-478458068#1" to="706999045" departLane="best" type="veh_passenger" departSpeed="max"/>
    <trip id="veh141" depart="1744.38" from="53726657#2" to="132474431#2" departLane="best" type="veh_passenger"/>
    <trip id="veh142" depart="1756.75" from="-236662690" to="694745767#1" departLane="best" type="veh_passenger" departSpeed="max"/>
    <trip id="veh143" depart="1769.12" from="371337124#0" to="66320573#1" departLane="best" type="veh_passenger"/>
    <trip id="veh144" depart="1781.49" from="44178506#0" to="215223497#0" departLane="best" type="veh_passenger" departSpeed="max"/>
    <trip id="veh145" depart="1793.87" from="132474404#3" to="621990109#8" departLane="best" type="veh_passenger"/>
    <trip id="veh146" depart="1806.24" from="132474404#2" to="66320583#1" departLane="best" type="veh_passenger"/>
    <trip id="veh147" depart="1818.61" from="66320561" to="-558902452#0" departLane="best" type="veh_passenger"/>
    <trip id="veh148" depart="1830.98" from="66939010#0" to="132474408#1" departLane="best" type="veh_passenger"/>
    <trip id="veh149" depart="1843.35" from="-1185549443" to="688633735#1" departLane="best" type="veh_passenger" departSpeed="max"/>
    <trip id="veh150" depart="1855.72" from="-236495369#1" to="132474402#1" departLane="best" type="veh_passenger" departSpeed="max"/>
    <trip id="veh151" depart="1868.09" from="40785625#1" to="132474412#8" departLane="best" type="veh_passenger"/>
    <trip id="veh152" depart="1880.47" from="236409580#0" to="53726650#1" departLane="best" type="veh_passenger" departSpeed="max"/>
    <trip id="veh153" depart="1892.84" from="-66939016" to="132474402#1" departLane="best" type="veh_passenger" departSpeed="max"/>
    <trip id="veh154" depart="1905.21" from="228500125#0" to="51774241#2" departLane="best" type="veh_passenger" departSpeed="max"/>
    <trip id="veh155" depart="1917.58" from="132474408#1" to="-558902452#4" departLane="best" type="veh_passenger"/>
    <trip id="veh156" depart="1929.95" from="-66939040#0" to="132474404#2" departLane="best" type="veh_passenger"/>
    <trip id="veh157" depart="1942.32" from="-66939014#4" to="-132474414#1" departLane="best" type="veh_passenger" departSpeed="max"/>
    <trip id="veh158" depart="1954.69" from="236409580#0" to="132474411#2" departLane="best" type="veh_passenger" departSpeed="max"/>
    <trip id="veh159" depart="1967.07" from="706999044#2" to="236495369#1" departLane="best" type="veh_passenger"/>
    <trip id="veh160" depart="1979.44" from="66320584" to="236662690" departLane="best" type="veh_passenger"/>
    <trip id="veh161" depart="1991.81" from="-66939016" to="-236495362#0" departLane="best" type="veh_passenger" departSpeed="max"/>
    <trip id="veh162" depart="2004.18" from="621990109#4" to="152447453#5" departLane="best" type="veh_passenger"/>
    <trip id="veh163" depart="2016.55" from="-235271673#3" to="40781484#3" departLane="best" type="veh_passenger"/>
    <trip id="veh164" depart="2028.92" from="236488979#2" to="132474412#7" departLane="best" type="veh_passenger"/>
    <trip id="veh165" depart="2041.30" from="990930609#0" to="-66939035#1" departLane="best" type="veh_passenger" departSpeed="max"/>
    <trip id="veh166" depart="2053.67" from="558902452#0" to="132474404#1" departLane="best" type="veh_passenger" departSpeed="max"/>
    <trip id="veh167" depart="2066.04" from="236167003#1" to="228407774" departLane="best" type="veh_passenger"/>
    <trip id="veh168" depart="2078.41" from="990930609#0" to="132474412#8" departLane="best" type="veh_passenger" departSpeed="max"/>
    <trip id="veh169" depart="2090.78" from="40784890#1" to="1018486130" departLane="best" type="veh_passenger"/>
    <trip id="veh170" depart="2103.15" from="-1018486128" to="228407774" departLane="best" type="veh_passenger"/>
    <trip id="veh171" depart="2115.52" from="236594015#1" to="132474412#16" departLane="best" type="veh_passenger"/>
    <trip id="veh172" depart="2127.90" from="40784890#1" to="688633730" departLane="best" type="veh_passenger"/>
    <trip id="veh173" depart="2140.27" from="152447453#6" to="236495369#1" departLane="best" type="veh_passenger"/>
    <trip id="veh174" depart="2152.64" from="40781484#0" to="66939035#1" departLane="best" type="veh_passenger"/>
    <trip id="veh175" depart="2165.01" from="-66939014#1" to="132474414#0" departLane="best" type="veh_passenger"/>
    <trip id="veh176" depart="2177.38" from="132474408#4" to="-66939040#2" departLane="best" type="veh_passenger"/>
    <trip id="veh177" depart="2189.75" from="132474412#11" to="132474408#4" departLane="best" type="veh_passenger"/>
    <trip id="veh178" depart="2202.12" from="-236495369#1" to="694745767#10" departLane="best" type="veh_passenger" departSpeed="max"/>
    <trip id="veh179" depart="2214.50" from="694745767#1" to="990930609#8" departLane="best" type="veh_passenger"/>
    <trip id="veh180" depart="2226.87" from="-132474414#0" to="53726649#1" departLane="best" type="veh_passenger"/>
    <trip id="veh181" depart="2239.24" from="678909319#2" to="1185549443" departLane="best" type="veh_passenger"/>
    <trip id="veh182" depart="2251.61" from="132474415" to="132474429#0" departLane="best" type="veh_passenger"/>
    <trip id="veh183" depart="2263.98" from="132474408#3" to="688633735#0" departLane="best" type="veh_passenger"/>
    <trip id="veh184" depart="2276.35" from="132474412#11" to="694745767#5" departLane="best" type="veh_passenger"/>
    <trip id="veh185" depart="2288.72" from="236488975#0" to="688633729#1" departLane="best" type="veh_passenger"/>
    <trip id="veh186" depart="2301.10" from="-66320561" to="236495369#1" departLane="best" type="veh_passenger" departSpeed="max"/>
    <trip id="veh187" depart="2313.47" from="990930609#0" to="66939040#1" departLane="best" type="veh_passenger" departSpeed="max"/>
    <trip id="veh188" depart="2325.84" from="132474406#1" to="66320575" departLane="best" type="veh_passenger"/>
    <trip id="veh189" depart="2338.21" from="236488975#1" to="152447452#0" departLane="best" type="veh_passenger"/>
    <trip id="veh190" depart="2350.58" from="152447453#0" to="688633733#0" departLane="best" type="veh_passenger"/>
    <trip id="veh191" depart="2362.95" from="132474408#1" to="132474412#4" departLane="best" type="veh_passenger"/>
    <trip id="veh192" depart="2375.33" from="40784890#3" to="66320572#2" departLane="best" type="veh_passenger"/>
    <trip id="veh193" depart="2387.70" from="860233209" to="235737645#5" departLane="best" type="veh_passenger"/>
    <trip id="veh194" depart="2400.07" from="-132474406#1" to="236167003#1" departLane="best" type="veh_passenger"/>
    <trip id="veh195" depart="2412.44" from="236495369#0" to="66939010#1" departLane="best" type="veh_passenger" departSpeed="max"/>
    <trip id="veh196" depart="2424.81" from="66320587#0" to="228407761#0" departLane="best" type="veh_passenger"/>
    <trip id="veh197" depart="2437.18" from="40781484#1" to="66320583#1" departLane="best" type="veh_passenger"/>
    <trip id="veh198" depart="2449.55" from="66320576#0" to="66320587#0" departLane="best" type="veh_passenger"/>
    <trip id="veh199" depart="2461.93" from="66320584" to="-236464875#2" departLane="best" type="veh_passenger"/>
    <trip id="veh200" depart="2474.30" from="-228407774" to="40784678#0" departLane="best" type="veh_passenger" departSpeed="max"/>
    <trip id="veh201" depart="2486.67" from="688633729#1" to="990930609#7" departLane="best" type="veh_passenger"/>
    <trip id="veh202" depart="2499.04" from="51815602#0" to="215223488#0" departLane="best" type="veh_passenger" departSpeed="max"/>
    <trip id="veh203" depart="2511.41" from="66320584" to="228407774" departLane="best" type="veh_passenger"/>
    <trip id="veh204" depart="2523.78" from="1185549445#0" to="66939040#1" departLane="best" type="veh_passenger"/>
    <trip id="veh205" depart="2536.15" from="-558902452#1" to="235271673#2" departLane="best" type="veh_passenger"/>
    <trip id="veh206" depart="2548.53" from="132474403" to="132474409#3" departLane="best" type="veh_passenger" departSpeed="max"/>
    <trip id="veh207" depart="2560.90" from="-1185549443" to="621990109#5" departLane="best" type="veh_passenger" departSpeed="max"/>
    <trip id="veh208" depart="2573.27" from="-66320561" to="228407774" departLane="best" type="veh_passenger" departSpeed="max"/>
    <trip id="veh209" depart="2585.64" from="132474414#0" to="238271790#3" departLane="best" type="veh_passenger"/>
    <trip id="veh210" depart="2598.01" from="1210849711#1" to="66320579#0" departLane="best" type="veh_passenger"/>
    <trip id="veh211" depart="2610.38" from="-66939040#2" to="152447452#0" departLane="best" type="veh_passenger"/>
    <trip id="veh212" depart="2622.76" from="990930609#0" to="132474412#2" departLane="best" type="veh_passenger" departSpeed="max"/>
    <trip id="veh213" depart="2635.13" from="132474408#2" to="621990109#0" departLane="best" type="veh_passenger"/>
    <trip id="veh214" depart="2647.50" from="238271790#0" to="132698944#0" departLane="best" type="veh_passenger"/>
    <trip id="veh215" depart="2659.87" from="371337124#1" to="40781018#3" departLane="best" type="veh_passenger"/>
    <trip id="veh216" depart="2672.24" from="40784890#0" to="66320576#1" departLane="best" type="veh_passenger"/>
    <trip id="veh217" depart="2684.61" from="238271790#7" to="66939034" departLane="best" type="veh_passenger"/>
    <trip id="veh218" depart="2696.98" from="40781484#0" to="132474414#1" departLane="best" type="veh_passenger"/>
    <trip id="veh219" depart="2709.36" from="-66939014#4" to="-866617997" departLane="best" type="veh_passenger" departSpeed="max"/>
    <trip id="veh220" depart="2721.73" from="236409580#1" to="694745767#6" departLane="best" type="veh_passenger"/>
    <trip id="veh221" depart="2734.10" from="236409580#0" to="66939040#1" departLane="best" type="veh_passenger" departSpeed="max"/>
    <trip id="veh222" depart="2746.47" from="66320561" to="132474409#3" departLane="best" type="veh_passenger"/>
    <trip id="veh223" depart="2758.84" from="694745767#8" to="621990109#5" departLane="best" type="veh_passenger"/>
    <trip id="veh224" depart="2771.21" from="-1185549443" to="236488997#0" departLane="best" type="veh_passenger" departSpeed="max"/>
    <trip id="veh225" depart="2783.58" from="621990109#5" to="688633734#0" departLane="best" type="veh_passenger"/>
    <trip id="veh226" depart="2795.96" from="-132474401" to="66939014#4" departLane="best" type="veh_passenger" departSpeed="max"/>
    <trip id="veh227" depart="2808.33" from="236488979#2" to="66939040#2" departLane="best" type="veh_passenger"/>
    <trip id="veh228" depart="2820.70" from="621990109#5" to="66939035#1" departLane="best" type="veh_passenger"/>
    <trip id="veh229" depart="2833.07" from="-236495369#1" to="66939014#4" departLane="best" type="veh_passenger" departSpeed="max"/>
    <trip id="veh230" depart="2845.44" from="152447453#0" to="-558902452#4" departLane="best" type="veh_passenger"/>
    <trip id="veh231" depart="2857.81" from="228500125#1" to="163920171#0" departLane="best" type="veh_passenger"/>
    <trip id="veh232" depart="2870.18" from="694745767#1" to="-236464875#0" departLane="best" type="veh_passenger"/>
    <trip id="veh233" depart="2882.56" from="132474429#1" to="228407774" departLane="best" type="veh_passenger"/>
    <trip id="veh234" depart="2894.93" from="236464875#1" to="694745767#9" departLane="best" type="veh_passenger"/>
    <trip id="veh235" depart="2907.30" from="132474427#1" to="152447453#4" departLane="best" type="veh_passenger"/>
    <trip id="veh236" depart="2919.67" from="66320573#3" to="228407787#1" departLane="best" type="veh_passenger"/>
    <trip id="veh237" depart="2932.04" from="53726657#4" to="132474408#1" departLane="best" type="veh_passenger"/>
    <trip id="veh238" depart="2944.41" from="-478458068#1" to="236662690" departLane="best" type="veh_passenger" departSpeed="max"/>
    <trip id="veh239" depart="2956.79" from="-228407774" to="53726650#2" departLane="best" type="veh_passenger" departSpeed="max"/>
    <trip id="veh240" depart="2969.16" from="-866617997" to="132474402#1" departLane="best" type="veh_passenger"/>
    <trip id="veh241" depart="2981.53" from="66320583#3" to="132474428#1" departLane="best" type="veh_passenger"/>