<?xml version="1.0" encoding="UTF-8"?>

<!-- generated on 2026-04-21T21:31:33.057800+03:00 by Eclipse SUMO netconvert 1.26.0
<netconvertConfiguration xmlns:xsi="http://www.w3.org/2001/XMLSchema-instance" xsi:noNamespaceSchemaLocation="http://sumo.dlr.de/xsd/netconvertConfiguration.xsd">

    <input>
        <sumo-net-file value="osm.net.xml.gz"/>
    </input>

    <output>
        <output-file value="osm_cleaned.net.xml"/>
        <output.street-names value="true"/>
    </output>

    <processing>
        <geometry.min-radius.fix.railways value="false"/>
        <geometry.avoid-overlap value="false"/>
        <geometry.max-grade.fix value="false"/>
        <offset.disable-normalization value="true"/>
        <lefthand value="0"/>
    </processing>

    <edge_removal>
        <keep-edges.components value="1"/>
    </edge_removal>

    <junctions>
        <no-turnarounds value="true"/>
        <junctions.corner-detail value="5"/>
        <junctions.limit-turn-speed value="5.50"/>
        <rectangular-lane-cut value="0"/>
    </junctions>

    <pedestrian>
        <walkingareas value="0"/>
    </pedestrian>

</netconvertConfiguration>
-->

<net version="1.20" junctionCornerDetail="5" limitTurnSpeed="5.50" avoidOverlap="0" xmlns:xsi="http://www.w3.org/2001/XMLSchema-instance" xsi:noNamespaceSchemaLocation="http://sumo.dlr.de/xsd/net_file.xsd">

    <location netOffset="-669940.79,-4538114.76" convBoundary="0.00,237.09,1191.00,1661.33" origBoundary="28.994004,40.951563,29.094256,41.032867" projParameter="+proj=utm +zone=35 +ellps=WGS84 +datum=WGS84 +units=m +no_defs"/>

    <type id="highway.cycleway" priority="1" numLanes="1" speed="5.56" allow="bicycle" oneway="0" width="2.00"/>
    <type id="highway.footway" priority="1" numLanes="1" speed="2.78" allow="pedestrian" oneway="1" width="2.00"/>
    <type id="highway.living_street" priority="2" numLanes="1" speed="2.78" disallow="tram rail_urban rail rail_electric rail_fast ship container cable_car subway aircraft wheelchair scooter drone" oneway="0"/>
    <type id="highway.path" priority="1" numLanes="1" speed="5.56" allow="pedestrian bicycle" oneway="0" width="2.00"/>
    <type id="highway.pedestrian" priority="1" numLanes="1" speed="2.78" allow="pedestrian" oneway="1" width="2.00"/>
    <type id="highway.residential" priority="3" numLanes="1" speed="13.89" disallow="tram rail_urban rail rail_electric rail_fast ship container cable_car subway aircraft wheelchair scooter drone" oneway="0"/>
    <type id="highway.service" priority="1" numLanes="1" speed="5.56" allow="pedestrian delivery bicycle" oneway="0"/>
    <type id="highway.steps" priority="1" numLanes="1" speed="1.39" allow="pedestrian" oneway="1" width="2.00"/>
    <type id="highway.tertiary" priority="10" numLanes="1" speed="22.22" disallow="tram rail_urban rail rail_electric rail_fast ship container cable_car subway aircraft wheelchair scooter drone" oneway="0"/>
    <type id="highway.unclassified" priority="4" numLanes="1" speed="13.89" disallow="tram rail_urban rail rail_electric rail_fast ship container cable_car subway aircraft wheelchair scooter drone" oneway="0"/>
    <type id="railway.tram" priority="17" numLanes="1" speed="13.89" allow="tram" oneway="1"/>

    <edge id=":10117495893_0" function="internal">
        <lane id=":10117495893_0_0" index="0" allow="pedestrian bicycle" speed="5.40" length="6.18" width="2.00" shape="163.93,1087.78 163.58,1086.43 163.90,1085.18 164.88,1084.01 166.54,1082.95"/>
    </edge>
    <edge id=":10117495893_1" function="internal">
        <lane id=":10117495893_1_0" index="0" allow="pedestrian bicycle" speed="2.89" length="2.92" width="2.00" shape="163.93,1087.78 164.05,1086.89 164.39,1086.45 164.95,1086.45 165.72,1086.90"/>
    </edge>
    <edge id=":10117495893_2" function="internal">
        <lane id=":10117495893_2_0" index="0" disallow="tram rail_urban rail rail_electric rail_fast ship container cable_car subway aircraft wheelchair scooter drone" speed="13.89" length="7.00" shape="160.31,1086.13 166.54,1082.95"/>
    </edge>
    <edge id=":10117495893_3" function="internal">
        <lane id=":10117495893_3_0" index="0" allow="pedestrian bicycle" speed="5.49" length="6.20" width="2.00" shape="160.31,1086.13 162.16,1085.41 163.68,1085.30 164.87,1085.80 165.72,1086.90"/>
    </edge>
    <edge id=":10117495894_0" function="internal">
        <lane id=":10117495894_0_0" index="0" allow="pedestrian bicycle" speed="2.89" length="2.92" width="2.00" shape="175.20,1106.29 175.08,1107.18 174.74,1107.63 174.18,1107.62 173.40,1107.17"/>
    </edge>
    <edge id=":10155750297_0" function="internal">
        <lane id=":10155750297_0_0" index="0" disallow="tram rail_urban rail rail_electric rail_fast ship container cable_car subway aircraft wheelchair scooter drone" speed="13.89" length="3.61" shape="119.35,1106.98 122.55,1105.32"/>
    </edge>
    <edge id=":10790870437_0" function="internal">
        <lane id=":10790870437_0_0" index="0" disallow="tram rail_urban rail rail_electric rail_fast ship container cable_car subway aircraft wheelchair scooter drone" speed="13.89" length="5.00" shape="881.65,977.71 886.42,976.18"/>
    </edge>
    <edge id=":10790870447_0" function="internal">
        <lane id=":10790870447_0_0" index="0" disallow="tram rail_urban rail rail_electric rail_fast ship container cable_car subway aircraft wheelchair scooter drone" speed="13.89" length="3.87" shape="900.25,971.74 903.93,970.56"/>
    </edge>
    <edge id=":11002514791_0" function="internal">
        <lane id=":11002514791_0_0" index="0" disallow="tram rail_urban rail rail_electric rail_fast ship container cable_car subway aircraft wheelchair scooter drone" speed="22.22" length="2.49" shape="910.99,997.67 911.26,1000.15"/>
    </edge>
    <edge id=":11002514792_0" function="internal">
        <lane id=":11002514792_0_0" index="0" disallow="tram rail_urban rail rail_electric rail_fast ship container cable_car subway aircraft wheelchair scooter drone" speed="22.22" length="2.09" shape="911.77,1005.60 911.92,1007.68"/>
    </edge>
    <edge id=":11002560315_0" function="internal">
        <lane id=":11002560315_0_0" index="0" allow="pedestrian delivery bicycle" speed="3.65" length="4.67" shape="1049.28,679.47 1050.31,678.45 1051.17,678.22 1051.88,678.78 1052.42,680.11"/>
    </edge>
    <edge id=":11002560342_0" function="internal">
        <lane id=":11002560342_0_0" index="0" allow="pedestrian delivery bicycle" speed="4.52" length="4.10" shape="1013.00,730.03 1013.23,730.83 1013.86,731.33 1014.88,731.54 1016.30,731.47"/>
    </edge>
    <edge id=":11002560342_1" function="internal">
        <lane id=":11002560342_1_0" index="0" allow="pedestrian delivery bicycle" speed="3.65" length="4.67" shape="1013.00,730.03 1012.24,731.26 1011.45,731.69 1010.64,731.32 1009.80,730.15"/>
    </edge>
    <edge id=":11002560342_2" function="internal">
        <lane id=":11002560342_2_0" index="0" allow="pedestrian delivery bicycle" speed="5.02" length="4.35" shape="1007.07,732.99 1008.29,732.61 1009.16,732.01 1009.66,731.19 1009.80,730.15"/>
    </edge>
    <edge id=":11002560342_3" function="internal">
        <lane id=":11002560342_3_0" index="0" disallow="tram rail_urban rail rail_electric rail_fast ship container cable_car subway aircraft wheelchair scooter drone" speed="22.22" length="9.36" shape="1007.07,732.99 1016.30,731.47"/>
    </edge>
    <edge id=":11002560346_0" function="internal">
        <lane id=":11002560346_0_0" index="0" allow="pedestrian delivery bicycle" speed="3.65" length="4.67" shape="1013.11,696.78 1014.22,695.86 1015.10,695.71 1015.75,696.32 1016.17,697.70"/>
    </edge>
    <edge id=":11002560347_0" function="internal">
        <lane id=":11002560347_0_0" index="0" allow="pedestrian delivery bicycle" speed="5.56" length="4.76" shape="1009.79,729.95 1009.60,725.19"/>
    </edge>
    <edge id=":11002560347_1" function="internal">
        <lane id=":11002560347_1_0" index="0" allow="pedestrian delivery bicycle" speed="3.65" length="1.44" shape="1009.79,729.95 1010.55,728.72"/>
    </edge>
    <edge id=":11002560347_4" function="internal">
        <lane id=":11002560347_4_0" index="0" allow="pedestrian delivery bicycle" speed="3.65" length="3.23" shape="1010.55,728.72 1011.33,728.29 1012.15,728.66 1012.99,729.83"/>
    </edge>
    <edge id=":11002560347_2" function="internal">
        <lane id=":11002560347_2_0" index="0" allow="pedestrian delivery bicycle" speed="5.56" length="4.79" shape="1012.79,725.05 1012.99,729.83"/>
    </edge>
    <edge id=":11002560347_3" function="internal">
        <lane id=":11002560347_3_0" index="0" allow="pedestrian delivery bicycle" speed="3.65" length="1.44" shape="1012.79,725.05 1012.05,726.28"/>
    </edge>
    <edge id=":11002560347_5" function="internal">
        <lane id=":11002560347_5_0" index="0" allow="pedestrian delivery bicycle" speed="3.65" length="3.23" shape="1012.05,726.28 1011.27,726.72 1010.45,726.35 1009.60,725.19"/>
    </edge>
    <edge id=":11002560368_0" function="internal">
        <lane id=":11002560368_0_0" index="0" allow="pedestrian delivery bicycle" speed="3.65" length="4.67" shape="893.74,746.96 894.49,745.73 895.27,745.29 896.09,745.66 896.94,746.82"/>
    </edge>
    <edge id=":11002570926_0" function="internal">
        <lane id=":11002570926_0_0" index="0" allow="pedestrian delivery bicycle" speed="3.65" length="4.67" shape="1078.36,775.05 1076.93,774.87 1076.22,774.33 1076.22,773.44 1076.94,772.19"/>
    </edge>
    <edge id=":11012615574_0" function="internal">
        <lane id=":11012615574_0_0" index="0" allow="pedestrian bicycle" speed="8.95" length="7.66" width="2.00" shape="245.70,559.86 245.03,557.00 244.39,554.85 243.77,553.42 243.18,552.71"/>
    </edge>
    <edge id=":11012615574_1" function="internal">
        <lane id=":11012615574_1_0" index="0" allow="pedestrian bicycle" speed="2.89" length="2.92" width="2.00" shape="245.70,559.86 246.03,559.02 246.47,558.67 247.01,558.81 247.66,559.44"/>
    </edge>
    <edge id=":11012615574_2" function="internal">
        <lane id=":11012615574_2_0" index="0" allow="pedestrian bicycle" speed="4.36" length="5.49" width="2.00" shape="250.17,557.03 248.71,556.37 247.80,556.55 247.45,557.58 247.66,559.44"/>
    </edge>
    <edge id=":11012615574_3" function="internal">
        <lane id=":11012615574_3_0" index="0" disallow="tram rail_urban rail rail_electric rail_fast ship container cable_car subway aircraft wheelchair scooter drone" speed="13.89" length="8.22" shape="250.17,557.03 243.18,552.71"/>
    </edge>
    <edge id=":11012615590_0" function="internal">
        <lane id=":11012615590_0_0" index="0" allow="pedestrian bicycle" speed="2.89" length="2.92" width="2.00" shape="450.81,1139.67 450.35,1140.45 449.87,1140.73 449.36,1140.51 448.81,1139.79"/>
    </edge>
    <edge id=":11028370453_0" function="internal">
        <lane id=":11028370453_0_0" index="0" allow="pedestrian bicycle" speed="5.56" length="5.03" width="2.00" shape="1098.45,622.53 1095.77,618.27"/>
    </edge>
    <edge id=":11028370453_1" function="internal">
        <lane id=":11028370453_1_0" index="0" allow="pedestrian bicycle" speed="2.89" length="2.92" width="2.00" shape="1098.45,622.53 1098.48,621.63 1098.77,621.15 1099.33,621.10 1100.15,621.48"/>
    </edge>
    <edge id=":11028370453_2" function="internal">
        <lane id=":11028370453_2_0" index="0" allow="pedestrian bicycle" speed="5.56" length="5.04" width="2.00" shape="1097.46,617.21 1100.15,621.48"/>
    </edge>
    <edge id=":11028370453_3" function="internal">
        <lane id=":11028370453_3_0" index="0" allow="pedestrian bicycle" speed="2.89" length="2.92" width="2.00" shape="1097.46,617.21 1097.44,618.12 1097.14,618.59 1096.59,618.65 1095.77,618.27"/>
    </edge>
    <edge id=":11147035445_0" function="internal">
        <lane id=":11147035445_0_0" index="0" disallow="tram rail_urban rail rail_electric rail_fast ship container cable_car subway aircraft wheelchair scooter drone" speed="13.89" length="5.10" shape="125.09,503.47 127.62,499.04"/>
    </edge>
    <edge id=":11148028508_0" function="internal">
        <lane id=":11148028508_0_0" index="0" allow="pedestrian delivery bicycle" speed="5.58" length="7.60" shape="99.65,553.46 98.30,552.67 97.80,551.33 98.14,549.46 99.33,547.04"/>
    </edge>
    <edge id=":11148028508_1" function="internal">
        <lane id=":11148028508_1_0" index="0" allow="pedestrian delivery bicycle" speed="3.65" length="4.67" shape="99.65,553.46 98.73,552.36 98.57,551.48 99.18,550.82 100.56,550.40"/>
    </edge>
    <edge id=":11148028508_2" function="internal">
        <lane id=":11148028508_2_0" index="0" disallow="tram rail_urban rail rail_electric rail_fast ship container cable_car subway aircraft wheelchair scooter drone" speed="13.89" length="8.62" shape="96.72,555.16 97.12,552.63 97.47,550.89 98.10,549.26 99.33,547.04"/>
    </edge>
    <edge id=":11148028508_3" function="internal">
        <lane id=":11148028508_3_0" index="0" allow="pedestrian delivery bicycle" speed="5.58" length="6.94" shape="96.72,555.16 97.32,552.75 98.15,551.16 99.24,550.37 100.56,550.40"/>
    </edge>
    <edge id=":11148028509_0" function="internal">
        <lane id=":11148028509_0_0" index="0" allow="pedestrian delivery bicycle" speed="3.65" length="4.67" shape="100.75,550.45 101.67,551.56 101.83,552.44 101.22,553.10 99.84,553.52"/>
    </edge>
    <edge id=":11148028513_0" function="internal">
        <lane id=":11148028513_0_0" index="0" disallow="tram rail_urban rail rail_electric rail_fast ship container cable_car subway aircraft wheelchair scooter drone" speed="13.89" length="5.01" shape="117.62,516.14 120.16,511.83"/>
    </edge>
    <edge id=":11267801825_0" function="internal">
        <lane id=":11267801825_0_0" index="0" disallow="tram rail_urban rail rail_electric rail_fast ship container cable_car subway aircraft wheelchair scooter drone" speed="22.22" length="2.73" shape="575.61,925.07 575.32,925.83 575.11,926.34 574.85,926.84 574.41,927.52"/>
    </edge>
    <edge id=":13185756742_0" function="internal">
        <lane id=":13185756742_0_0" index="0" allow="pedestrian delivery bicycle" speed="5.56" length="5.79" shape="318.86,338.19 319.15,339.60 318.46,340.61 317.51,341.70 317.04,343.31"/>
    </edge>
    <edge id=":13185756742_1" function="internal">
        <lane id=":13185756742_1_0" index="0" allow="pedestrian delivery bicycle" speed="4.23" length="7.07" shape="318.86,338.19 317.14,339.53 315.81,339.73 314.85,338.77 314.27,336.67"/>
    </edge>
    <edge id=":13185756745_0" function="internal">
        <lane id=":13185756745_0_0" index="0" allow="pedestrian delivery bicycle" speed="5.64" length="5.38" shape="305.68,342.51 306.84,343.03 308.04,343.06 309.28,342.60 310.54,341.65"/>
    </edge>
    <edge id=":13185756745_1" function="internal">
        <lane id=":13185756745_1_0" index="0" disallow="tram rail_urban rail rail_electric rail_fast ship container cable_car subway aircraft wheelchair scooter drone" speed="13.89" length="6.28" shape="305.68,342.51 310.90,346.00"/>
    </edge>
    <edge id=":13185756748_0" function="internal">
        <lane id=":13185756748_0_0" index="0" allow="pedestrian delivery bicycle" speed="5.56" length="3.74" shape="314.17,336.49 313.62,335.53 313.24,334.87 312.82,334.24 312.16,333.35"/>
    </edge>
    <edge id=":13185756748_1" function="internal">
        <lane id=":13185756748_1_0" index="0" allow="pedestrian delivery bicycle" speed="4.25" length="7.18" shape="314.17,336.49 315.94,335.16 317.30,334.98 318.26,335.96 318.81,338.10"/>
    </edge>
    <edge id=":13185756748_2" function="internal">
        <lane id=":13185756748_2_0" index="0" allow="pedestrian delivery bicycle" speed="5.56" length="7.90" shape="314.68,331.38 316.07,333.27 316.91,334.63 317.67,336.05 318.81,338.10"/>
    </edge>
    <edge id=":13185756748_3" function="internal">
        <lane id=":13185756748_3_0" index="0" allow="pedestrian delivery bicycle" speed="3.65" length="4.67" shape="314.68,331.38 314.79,332.82 314.40,333.63 313.53,333.80 312.16,333.35"/>
    </edge>
    <edge id=":13185756748_4" function="internal">
        <lane id=":13185756748_4_0" index="0" allow="pedestrian delivery bicycle" speed="5.56" length="7.28" shape="311.55,340.15 312.57,338.15 313.02,336.35 312.88,334.75 312.16,333.35"/>
    </edge>
    <edge id=":13185756748_5" function="internal">
        <lane id=":13185756748_5_0" index="0" allow="pedestrian delivery bicycle" speed="5.56" length="9.81" shape="311.55,340.15 313.64,337.40 315.55,336.14 317.28,336.37 318.81,338.10"/>
    </edge>
    <edge id=":13200962066_0" function="internal">
        <lane id=":13200962066_0_0" index="0" allow="pedestrian delivery bicycle" speed="3.65" length="4.67" shape="584.92,614.08 583.66,613.38 583.19,612.62 583.52,611.79 584.65,610.89"/>
    </edge>
    <edge id=":13200962069_0" function="internal">
        <lane id=":13200962069_0_0" index="0" allow="pedestrian delivery bicycle" speed="5.56" length="4.99" shape="663.55,661.73 662.97,656.77"/>
    </edge>
    <edge id=":13200962069_1" function="internal">
        <lane id=":13200962069_1_0" index="0" allow="pedestrian delivery bicycle" speed="3.65" length="1.44" shape="663.55,661.73 664.20,660.44"/>
    </edge>
    <edge id=":13200962069_4" function="internal">
        <lane id=":13200962069_4_0" index="0" allow="pedestrian delivery bicycle" speed="3.65" length="3.23" shape="664.20,660.44 664.95,659.95 665.79,660.25 666.72,661.35"/>
    </edge>
    <edge id=":13200962069_2" function="internal">
        <lane id=":13200962069_2_0" index="0" allow="pedestrian delivery bicycle" speed="5.56" length="4.97" shape="666.15,656.41 666.72,661.35"/>
    </edge>
    <edge id=":13200962069_3" function="internal">
        <lane id=":13200962069_3_0" index="0" allow="pedestrian delivery bicycle" speed="3.65" length="1.44" shape="666.15,656.41 665.49,657.69"/>
    </edge>
    <edge id=":13200962069_5" function="internal">
        <lane id=":13200962069_5_0" index="0" allow="pedestrian delivery bicycle" speed="3.65" length="3.23" shape="665.49,657.69 664.74,658.18 663.90,657.87 662.97,656.77"/>
    </edge>
    <edge id=":13200977338_0" function="internal">
        <lane id=":13200977338_0_0" index="0" disallow="tram rail_urban rail rail_electric rail_fast ship container cable_car subway aircraft wheelchair scooter drone" speed="2.78" length="5.69" shape="727.72,762.11 727.28,756.44"/>
    </edge>
    <edge id=":13200977338_1" function="internal">
        <lane id=":13200977338_1_0" index="0" disallow="tram rail_urban rail rail_electric rail_fast ship container cable_car subway aircraft wheelchair scooter drone" speed="2.78" length="5.69" shape="730.47,756.19 730.91,761.86"/>
    </edge>
    <edge id=":13200977350_0" function="internal">
        <lane id=":13200977350_0_0" index="0" disallow="tram rail_urban rail rail_electric rail_fast ship container cable_car subway aircraft wheelchair scooter drone" speed="2.78" length="5.00" shape="728.57,773.13 728.19,768.14"/>
    </edge>
    <edge id=":13200977350_1" function="internal">
        <lane id=":13200977350_1_0" index="0" disallow="tram rail_urban rail rail_electric rail_fast ship container cable_car subway aircraft wheelchair scooter drone" speed="2.78" length="5.00" shape="731.38,767.90 731.76,772.88"/>
    </edge>
    <edge id=":13200977359_0" function="internal">
        <lane id=":13200977359_0_0" index="0" allow="pedestrian delivery bicycle" speed="5.56" length="5.00" shape="771.35,677.69 770.89,672.71"/>
    </edge>
    <edge id=":13200977359_1" function="internal">
        <lane id=":13200977359_1_0" index="0" allow="pedestrian delivery bicycle" speed="3.65" length="1.44" shape="771.35,677.69 772.04,676.42"/>
    </edge>
    <edge id=":13200977359_4" function="internal">
        <lane id=":13200977359_4_0" index="0" allow="pedestrian delivery bicycle" speed="3.65" length="3.23" shape="772.04,676.42 772.80,675.95 773.63,676.27 774.54,677.39"/>
    </edge>
    <edge id=":13200977359_2" function="internal">
        <lane id=":13200977359_2_0" index="0" allow="pedestrian delivery bicycle" speed="5.56" length="5.00" shape="774.07,672.41 774.54,677.39"/>
    </edge>
    <edge id=":13200977359_3" function="internal">
        <lane id=":13200977359_3_0" index="0" allow="pedestrian delivery bicycle" speed="3.65" length="1.44" shape="774.07,672.41 773.39,673.68"/>
    </edge>
    <edge id=":13200977359_5" function="internal">
        <lane id=":13200977359_5_0" index="0" allow="pedestrian delivery bicycle" speed="3.65" length="3.23" shape="773.39,673.68 772.63,674.15 771.80,673.83 770.89,672.71"/>
    </edge>
    <edge id=":13200977371_0" function="internal">
        <lane id=":13200977371_0_0" index="0" allow="pedestrian delivery bicycle" speed="5.56" length="5.00" shape="784.97,728.43 784.14,723.50"/>
    </edge>
    <edge id=":13200977371_1" function="internal">
        <lane id=":13200977371_1_0" index="0" allow="pedestrian delivery bicycle" speed="3.65" length="1.44" shape="784.97,728.43 785.56,727.11"/>
    </edge>
    <edge id=":13200977371_4" function="internal">
        <lane id=":13200977371_4_0" index="0" allow="pedestrian delivery bicycle" speed="3.65" length="3.23" shape="785.56,727.11 786.29,726.59 787.14,726.85 788.13,727.90"/>
    </edge>
    <edge id=":13200977371_2" function="internal">
        <lane id=":13200977371_2_0" index="0" allow="pedestrian delivery bicycle" speed="5.56" length="5.00" shape="787.30,722.96 788.13,727.90"/>
    </edge>
    <edge id=":13200977371_3" function="internal">
        <lane id=":13200977371_3_0" index="0" allow="pedestrian delivery bicycle" speed="3.65" length="1.44" shape="787.30,722.96 786.71,724.28"/>
    </edge>
    <edge id=":13200977371_5" function="internal">
        <lane id=":13200977371_5_0" index="0" allow="pedestrian delivery bicycle" speed="3.65" length="3.23" shape="786.71,724.28 785.99,724.81 785.13,724.55 784.14,723.50"/>
    </edge>
    <edge id=":13204514512_0" function="internal">
        <lane id=":13204514512_0_0" index="0" allow="pedestrian delivery bicycle" speed="5.56" length="4.96" shape="657.95,612.79 657.66,611.41 657.14,610.28 656.39,609.41 655.41,608.79"/>
    </edge>
    <edge id=":13204514512_1" function="internal">
        <lane id=":13204514512_1_0" index="0" allow="pedestrian delivery bicycle" speed="5.56" length="8.89" shape="657.95,612.79 657.99,610.43 658.70,608.47 660.09,606.91 662.14,605.74"/>
    </edge>
    <edge id=":13204514512_2" function="internal">
        <lane id=":13204514512_2_0" index="0" allow="pedestrian delivery bicycle" speed="3.65" length="4.67" shape="657.95,612.79 658.61,611.51 659.35,611.02 660.19,611.33 661.13,612.43"/>
    </edge>
    <edge id=":13204514512_3" function="internal">
        <lane id=":13204514512_3_0" index="0" allow="pedestrian delivery bicycle" speed="5.41" length="4.69" shape="663.34,608.71 662.25,609.32 661.52,610.15 661.15,611.18 661.13,612.43"/>
    </edge>
    <edge id=":13204514512_4" function="internal">
        <lane id=":13204514512_4_0" index="0" allow="pedestrian delivery bicycle" speed="5.56" length="8.15" shape="663.34,608.71 661.24,609.36 659.21,609.59 657.27,609.40 655.41,608.79"/>
    </edge>
    <edge id=":13204514512_5" function="internal">
        <lane id=":13204514512_5_0" index="0" allow="pedestrian delivery bicycle" speed="3.65" length="4.67" shape="663.34,608.71 661.92,608.42 661.25,607.83 661.33,606.93 662.14,605.74"/>
    </edge>
    <edge id=":13204514512_6" function="internal">
        <lane id=":13204514512_6_0" index="0" allow="pedestrian delivery bicycle" speed="5.56" length="5.55" shape="656.74,605.87 657.97,606.27 659.28,606.38 660.67,606.21 662.14,605.74"/>
    </edge>
    <edge id=":13204514512_7" function="internal">
        <lane id=":13204514512_7_0" index="0" allow="pedestrian delivery bicycle" speed="5.56" length="8.26" shape="656.74,605.87 658.45,606.94 659.75,608.38 660.65,610.21 661.13,612.43"/>
    </edge>
    <edge id=":13204514512_8" function="internal">
        <lane id=":13204514512_8_0" index="0" allow="pedestrian delivery bicycle" speed="3.65" length="4.67" shape="656.74,605.87 657.50,607.10 657.53,607.99 656.84,608.55 655.41,608.79"/>
    </edge>
    <edge id=":13313239638_0" function="internal">
        <lane id=":13313239638_0_0" index="0" allow="pedestrian delivery bicycle" speed="3.69" length="4.79" shape="431.56,385.13 432.25,383.83 433.02,383.33 433.88,383.66 434.82,384.80"/>
    </edge>
    <edge id=":13421439161_0" function="internal">
        <lane id=":13421439161_0_0" index="0" allow="pedestrian delivery bicycle" speed="5.56" length="4.99" shape="487.51,727.29 482.69,728.59"/>
    </edge>
    <edge id=":13421439161_1" function="internal">
        <lane id=":13421439161_1_0" index="0" allow="pedestrian delivery bicycle" speed="3.65" length="1.44" shape="487.51,727.29 486.14,726.83"/>
    </edge>
    <edge id=":13421439161_4" function="internal">
        <lane id=":13421439161_4_0" index="0" allow="pedestrian delivery bicycle" speed="3.65" length="3.23" shape="486.14,726.83 485.55,726.16 485.73,725.29 486.68,724.20"/>
    </edge>
    <edge id=":13421439161_2" function="internal">
        <lane id=":13421439161_2_0" index="0" allow="pedestrian delivery bicycle" speed="5.56" length="5.00" shape="481.85,725.50 486.68,724.20"/>
    </edge>
    <edge id=":13421439161_3" function="internal">
        <lane id=":13421439161_3_0" index="0" allow="pedestrian delivery bicycle" speed="3.65" length="1.44" shape="481.85,725.50 483.22,725.96"/>
    </edge>
    <edge id=":13421439161_5" function="internal">
        <lane id=":13421439161_5_0" index="0" allow="pedestrian delivery bicycle" speed="3.65" length="3.23" shape="483.22,725.96 483.81,726.63 483.64,727.51 482.69,728.59"/>
    </edge>
    <edge id=":13421439164_0" function="internal">
        <lane id=":13421439164_0_0" index="0" allow="pedestrian delivery bicycle" speed="5.56" length="5.57" shape="476.88,730.16 475.29,730.59 474.19,730.85 473.07,731.05 471.44,731.29"/>
    </edge>
    <edge id=":13421439164_1" function="internal">
        <lane id=":13421439164_1_0" index="0" allow="pedestrian delivery bicycle" speed="3.65" length="1.44" shape="476.88,730.16 475.52,729.71"/>
    </edge>
    <edge id=":13421439164_4" function="internal">
        <lane id=":13421439164_4_0" index="0" allow="pedestrian delivery bicycle" speed="3.65" length="3.23" shape="475.52,729.71 474.92,729.04 475.10,728.16 476.05,727.08"/>
    </edge>
    <edge id=":13421439164_2" function="internal">
        <lane id=":13421439164_2_0" index="0" allow="pedestrian delivery bicycle" speed="5.56" length="5.19" shape="470.97,728.13 472.50,727.90 473.53,727.71 474.56,727.47 476.05,727.08"/>
    </edge>
    <edge id=":13421439164_3" function="internal">
        <lane id=":13421439164_3_0" index="0" allow="pedestrian delivery bicycle" speed="3.65" length="1.44" shape="470.97,728.13 472.28,728.74"/>
    </edge>
    <edge id=":13421439164_5" function="internal">
        <lane id=":13421439164_5_0" index="0" allow="pedestrian delivery bicycle" speed="3.65" length="3.23" shape="472.28,728.74 472.79,729.48 472.51,730.33 471.44,731.29"/>
    </edge>
    <edge id=":13421439165_0" function="internal">
        <lane id=":13421439165_0_0" index="0" allow="pedestrian delivery bicycle" speed="3.65" length="4.67" shape="447.87,734.78 446.57,734.17 446.06,733.43 446.34,732.58 447.41,731.62"/>
    </edge>
    <edge id=":13421439166_0" function="internal">
        <lane id=":13421439166_0_0" index="0" disallow="tram rail_urban rail rail_electric rail_fast ship container cable_car subway aircraft wheelchair scooter drone" speed="13.89" length="9.43" shape="500.66,720.09 501.85,729.44"/>
    </edge>
    <edge id=":13421439166_1" function="internal">
        <lane id=":13421439166_1_0" index="0" allow="pedestrian delivery bicycle" speed="5.99" length="8.03" shape="500.66,720.09 500.79,722.91 500.38,724.94 499.42,726.18 497.91,726.63"/>
    </edge>
    <edge id=":13421439166_2" function="internal">
        <lane id=":13421439166_2_0" index="0" allow="pedestrian delivery bicycle" speed="6.35" length="7.93" shape="497.81,723.43 499.28,723.76 500.45,724.88 501.30,726.77 501.85,729.44"/>
    </edge>
    <edge id=":13421439166_3" function="internal">
        <lane id=":13421439166_3_0" index="0" allow="pedestrian delivery bicycle" speed="3.65" length="4.67" shape="497.81,723.43 499.03,724.19 499.46,724.98 499.08,725.79 497.91,726.63"/>
    </edge>
    <edge id=":13421439171_0" function="internal">
        <lane id=":13421439171_0_0" index="0" allow="pedestrian delivery bicycle" speed="3.65" length="4.67" shape="465.30,708.04 464.20,707.10 463.90,706.26 464.39,705.51 465.68,704.86"/>
    </edge>
    <edge id=":13421439179_0" function="internal">
        <lane id=":13421439179_0_0" index="0" allow="pedestrian delivery bicycle" speed="5.56" length="0.44" shape="497.43,663.34 497.12,663.03"/>
    </edge>
    <edge id=":13421439179_1" function="internal">
        <lane id=":13421439179_1_0" index="0" allow="pedestrian delivery bicycle" speed="3.65" length="2.34" shape="497.43,663.34 496.24,662.52 495.86,661.71"/>
    </edge>
    <edge id=":13421439179_4" function="internal">
        <lane id=":13421439179_4_0" index="0" allow="pedestrian delivery bicycle" speed="3.65" length="2.34" shape="495.86,661.71 496.27,660.92 497.49,660.14"/>
    </edge>
    <edge id=":13421439179_2" function="internal">
        <lane id=":13421439179_2_0" index="0" allow="pedestrian delivery bicycle" speed="5.56" length="0.28" shape="497.26,660.30 497.49,660.14"/>
    </edge>
    <edge id=":13421439179_3" function="internal">
        <lane id=":13421439179_3_0" index="0" allow="pedestrian delivery bicycle" speed="3.95" length="3.64" shape="497.26,660.30 498.06,661.03 498.31,661.72 497.99,662.39 497.12,663.03"/>
    </edge>
    <edge id=":13421439180_0" function="internal">